<?xml version="1.0" ?>
<!DOCTYPE plans SYSTEM "http://www.matsim.org/files/dtd/plans_v4.dtd">
<plans>
	<person id="1">
		<plan>
			<act type="home" link="1" end_time="06:00:00" />
			<leg mode="car"></leg>
			<act type="work" link="7" dur="02:00:00" end_time="09:00:00" />
			<leg mode="car"></leg>
			<act type="home" link="1" />
		</plan>
	</person>
	<person id="2">
		<plan>
			<act type="home" link="1" end_time="06:00:05" />
			<leg mode="car"></leg>
			<act type="work" link="7" dur="02:00:00" end_time="09:00:00" />
			<leg mode="car"></leg>
			<act type="home" link="1" />
		</plan>
	</person>
	<person id="3">
		<plan>
			<act type="home" link="1" end_time="06:00:10" />
			<leg mode="car"></leg>
			<act type="work" link="7" dur="02:00:00" end_time="09:00:00" />
			<leg mode="car"></leg>
			<act type="home" link="1" />
		</plan>
	</person>
	<person id="4">
		<plan>
			<act type="home" link="1" end_time="06:00:15" />
			<leg mode="car"></leg>
			<act type="work" link="7" dur="02:00:00" end_time="09:00:00" />
			<leg mode="car"></leg>
			<act type="home" link="1" />
		</plan>
	</person>
	<person id="5">
		<plan>
			<act type="home" link="1" end_time="06:00:20" />
			<leg mode="car"></leg>
			<act type="work" link="7" dur="02:00:00" end_time="09:00:00" />
			<leg mode="car"></leg>
			<act type="home" link="1" />
		</plan>
	</person>
	<person id="6">
		<plan>
			<act type="home" link="1" end_time="06:00:25" />
			<leg mode="car"></leg>
			<act type="work" link="7" dur="02:00:00" end_time="09:00:00" />
			<leg mode="car"></leg>
			<act type="home" link="1" />
		</plan>
	</person>
	<person id="7">
		<plan>
			<act type="home" link="1" end_time="06:00:30" />
			<leg mode="car"></leg>
			<act type="work" link="7" dur="02:00:00" end_time="09:00:00" />
			<leg mode="car"></leg>
			<act type="home" link="1" />
		</plan>
	</person>
	<person id="8">
		<plan>
			<act type="home" link="1" end_time="06:00:35" />
			<leg mode="car"></leg>
			<act type="work" link="7" dur="02:00:00" end_time="09:00:00" />
			<leg mode="car"></leg>
			<act type="home" link="1" />
		</plan>
	</person>
	<person id="9">
		<plan>
			<act type="home" link="1" end_time="06:00:40" />
			<leg mode="car"></leg>
			<act type="work" link="7" dur="02:00:00" end_time="09:00:00" />
			<leg mode="car"></leg>
			<act type="home" link="1" />
		</plan>
	</person>
	<person id="10">
		<plan>
			<act type="home" link="1" end_time="06:00:45" />
			<leg mode="car"></leg>
			<act type="work" link="7" dur="02:00:00" end_time="09:00:00" />
			<leg mode="car"></leg>
			<act type="home" link="1" />
		</plan>
	</person>
	
	<person id="11">
		<plan>
			<act type="home" link="1" end_time="06:00:45" />
			<leg mode="car"></leg>
			<act type="work" link="7" dur="02:00:00" end_time="09:00:00" />
			<leg mode="car"></leg>
			<act type="home" link="1" />
		</plan>
	</person>
	<person id="12">
		<plan>
			<act type="home" link="1" end_time="06:00:45" />
			<leg mode="car"></leg>
			<act type="work" link="7" dur="02:00:00" end_time="09:00:00" />
			<leg mode="car"></leg>
			<act type="home" link="1" />
		</plan>
	</person>
	<person id="13">
		<plan>
			<act type="home" link="1" end_time="06:00:45" />
			<leg mode="car"></leg>
			<act type="work" link="7" dur="02:00:00" end_time="09:00:00" />
			<leg mode="car"></leg>
			<act type="home" link="1" />
		</plan>
	</person>
	<person id="14">
		<plan>
			<act type="home" link="1" end_time="06:00:45" />
			<leg mode="car"></leg>
			<act type="work" link="7" dur="02:00:00" end_time="09:00:00" />
			<leg mode="car"></leg>
			<act type="home" link="1" />
		</plan>
	</person>
	<person id="15">
		<plan>
			<act type="home" link="1" end_time="06:00:45" />
			<leg mode="car"></leg>
			<act type="work" link="7" dur="02:00:00" end_time="09:00:00" />
			<leg mode="car"></leg>
			<act type="home" link="1" />
		</plan>
	</person>
	<person id="16">
		<plan>
			<act type="home" link="1" end_time="06:00:45" />
			<leg mode="car"></leg>
			<act type="work" link="7" dur="02:00:00" end_time="09:00:00" />
			<leg mode="car"></leg>
			<act type="home" link="1" />
		</plan>
	</person>
	<person id="17">
		<plan>
			<act type="home" link="1" end_time="06:00:45" />
			<leg mode="car"></leg>
			<act type="work" link="7" dur="02:00:00" end_time="09:00:00" />
			<leg mode="car"></leg>
			<act type="home" link="1" />
		</plan>
	</person>
	<person id="18">
		<plan>
			<act type="home" link="1" end_time="06:00:45" />
			<leg mode="car"></leg>
			<act type="work" link="7" dur="02:00:00" end_time="09:00:00" />
			<leg mode="car"></leg>
			<act type="home" link="1" />
		</plan>
	</person>
	<person id="19">
		<plan>
			<act type="home" link="1" end_time="06:00:45" />
			<leg mode="car"></leg>
			<act type="work" link="7" dur="02:00:00" end_time="09:00:00" />
			<leg mode="car"></leg>
			<act type="home" link="1" />
		</plan>
	</person>
	<person id="20">
		<plan>
			<act type="home" link="1" end_time="06:00:45" />
			<leg mode="car"></leg>
			<act type="work" link="7" dur="02:00:00" end_time="09:00:00" />
			<leg mode="car"></leg>
			<act type="home" link="1" />
		</plan>
	</person>
	<person id="21">
		<plan>
			<act type="home" link="1" end_time="06:00:45" />
			<leg mode="car"></leg>
			<act type="work" link="7" dur="02:00:00" end_time="09:00:00" />
			<leg mode="car"></leg>
			<act type="home" link="1" />
		</plan>
	</person>
	<person id="22">
		<plan>
			<act type="home" link="1" end_time="06:00:45" />
			<leg mode="car"></leg>
			<act type="work" link="7" dur="02:00:00" end_time="09:00:00" />
			<leg mode="car"></leg>
			<act type="home" link="1" />
		</plan>
	</person>
	<person id="23">
		<plan>
			<act type="home" link="1" end_time="06:00:45" />
			<leg mode="car"></leg>
			<act type="work" link="7" dur="02:00:00" end_time="09:00:00" />
			<leg mode="car"></leg>
			<act type="home" link="1" />
		</plan>
	</person>
	<person id="24">
		<plan>
			<act type="home" link="1" end_time="06:00:45" />
			<leg mode="car"></leg>
			<act type="work" link="7" dur="02:00:00" end_time="09:00:00" />
			<leg mode="car"></leg>
			<act type="home" link="1" />
		</plan>
	</person>
	<person id="25">
		<plan>
			<act type="home" link="1" end_time="06:00:45" />
			<leg mode="car"></leg>
			<act type="work" link="7" dur="02:00:00" end_time="09:00:00" />
			<leg mode="car"></leg>
			<act type="home" link="1" />
		</plan>
	</person>
</plans>
